*SPEF "ieee 1481-1999"
*DESIGN "tiny_user_project"
*DATE "11:11:11 Fri 11 11, 1111"
*VENDOR "OpenRCX"
*PROGRAM "Parallel Extraction"
*VERSION "1.0"
*DESIGN_FLOW "NAME_SCOPE LOCAL" "PIN_CAP NONE"
*DIVIDER /
*DELIMITER :
*BUS_DELIMITER []
*T_UNIT 1 NS
*C_UNIT 1 PF
*R_UNIT 1 OHM
*L_UNIT 1 HENRY

*NAME_MAP
*1 io_in[0]
*2 io_in[10]
*3 io_in[11]
*4 io_in[12]
*5 io_in[13]
*6 io_in[14]
*7 io_in[15]
*8 io_in[16]
*9 io_in[17]
*10 io_in[18]
*11 io_in[19]
*12 io_in[1]
*13 io_in[20]
*14 io_in[21]
*15 io_in[22]
*16 io_in[23]
*17 io_in[24]
*18 io_in[25]
*19 io_in[26]
*20 io_in[27]
*21 io_in[28]
*22 io_in[29]
*23 io_in[2]
*24 io_in[30]
*25 io_in[31]
*26 io_in[32]
*27 io_in[33]
*28 io_in[34]
*29 io_in[35]
*30 io_in[36]
*31 io_in[37]
*32 io_in[3]
*33 io_in[4]
*34 io_in[5]
*35 io_in[6]
*36 io_in[7]
*37 io_in[8]
*38 io_in[9]
*39 net115
*40 net125
*41 net126
*42 net127
*43 net128
*44 net129
*45 net130
*46 net131
*47 net132
*48 net133
*49 net134
*50 net116
*51 net135
*52 net136
*53 net137
*54 net138
*55 net139
*56 net140
*57 net141
*58 net142
*59 net143
*60 net144
*61 net117
*62 net145
*63 net146
*64 net147
*65 net148
*66 net149
*67 net150
*68 net151
*69 net152
*70 net118
*71 net119
*72 net120
*73 net121
*74 net122
*75 net123
*76 net124
*77 net89
*78 net99
*79 net100
*80 net101
*81 net102
*82 net103
*83 net104
*84 net105
*85 net106
*86 net107
*87 net108
*88 net90
*89 io_out[20]
*90 io_out[21]
*91 io_out[22]
*92 io_out[23]
*93 io_out[24]
*94 io_out[25]
*95 io_out[26]
*96 io_out[27]
*97 io_out[28]
*98 io_out[29]
*99 net91
*100 io_out[30]
*101 io_out[31]
*102 net109
*103 net110
*104 net111
*105 net112
*106 net113
*107 net114
*108 net92
*109 net93
*110 net94
*111 net95
*112 net96
*113 net97
*114 net98
*115 la_data_in[0]
*116 la_data_in[10]
*117 la_data_in[11]
*118 la_data_in[12]
*119 la_data_in[13]
*120 la_data_in[14]
*121 la_data_in[15]
*122 la_data_in[16]
*123 la_data_in[17]
*124 la_data_in[18]
*125 la_data_in[19]
*126 la_data_in[1]
*127 la_data_in[20]
*128 la_data_in[21]
*129 la_data_in[22]
*130 la_data_in[23]
*131 la_data_in[24]
*132 la_data_in[25]
*133 la_data_in[26]
*134 la_data_in[27]
*135 la_data_in[28]
*136 la_data_in[29]
*137 la_data_in[2]
*138 la_data_in[30]
*139 la_data_in[31]
*140 la_data_in[32]
*141 la_data_in[33]
*142 la_data_in[34]
*143 la_data_in[35]
*144 la_data_in[36]
*145 la_data_in[37]
*146 la_data_in[38]
*147 la_data_in[39]
*148 la_data_in[3]
*149 la_data_in[40]
*150 la_data_in[41]
*151 la_data_in[42]
*152 la_data_in[43]
*153 la_data_in[44]
*154 la_data_in[45]
*155 la_data_in[46]
*156 la_data_in[47]
*157 la_data_in[48]
*158 la_data_in[49]
*159 la_data_in[4]
*160 la_data_in[50]
*161 la_data_in[51]
*162 la_data_in[52]
*163 la_data_in[53]
*164 la_data_in[54]
*165 la_data_in[55]
*166 la_data_in[56]
*167 la_data_in[57]
*168 la_data_in[58]
*169 la_data_in[59]
*170 la_data_in[5]
*171 la_data_in[60]
*172 la_data_in[61]
*173 la_data_in[62]
*174 la_data_in[63]
*175 la_data_in[6]
*176 la_data_in[7]
*177 la_data_in[8]
*178 la_data_in[9]
*179 net25
*180 net35
*181 net36
*182 net37
*183 net38
*184 net39
*185 net40
*186 net41
*187 net42
*188 net43
*189 net44
*190 net26
*191 net45
*192 net46
*193 net47
*194 net48
*195 net49
*196 net50
*197 net51
*198 net52
*199 net53
*200 net54
*201 net27
*202 net55
*203 net56
*204 net57
*205 net58
*206 net59
*207 net60
*208 net61
*209 net62
*210 net63
*211 net64
*212 net28
*213 net65
*214 net66
*215 net67
*216 net68
*217 net69
*218 net70
*219 net71
*220 net72
*221 net73
*222 net74
*223 net29
*224 net75
*225 net76
*226 net77
*227 net78
*228 net79
*229 net80
*230 net81
*231 net82
*232 net83
*233 net84
*234 net30
*235 net85
*236 net86
*237 net87
*238 net88
*239 net31
*240 net32
*241 net33
*242 net34
*243 la_oenb[0]
*244 la_oenb[10]
*245 la_oenb[11]
*246 la_oenb[12]
*247 la_oenb[13]
*248 la_oenb[14]
*249 la_oenb[15]
*250 la_oenb[16]
*251 la_oenb[17]
*252 la_oenb[18]
*253 la_oenb[19]
*254 la_oenb[1]
*255 la_oenb[20]
*256 la_oenb[21]
*257 la_oenb[22]
*258 la_oenb[23]
*259 la_oenb[24]
*260 la_oenb[25]
*261 la_oenb[26]
*262 la_oenb[27]
*263 la_oenb[28]
*264 la_oenb[29]
*265 la_oenb[2]
*266 la_oenb[30]
*267 la_oenb[31]
*268 la_oenb[32]
*269 la_oenb[33]
*270 la_oenb[34]
*271 la_oenb[35]
*272 la_oenb[36]
*273 la_oenb[37]
*274 la_oenb[38]
*275 la_oenb[39]
*276 la_oenb[3]
*277 la_oenb[40]
*278 la_oenb[41]
*279 la_oenb[42]
*280 la_oenb[43]
*281 la_oenb[44]
*282 la_oenb[45]
*283 la_oenb[46]
*284 la_oenb[47]
*285 la_oenb[48]
*286 la_oenb[49]
*287 la_oenb[4]
*288 la_oenb[50]
*289 la_oenb[51]
*290 la_oenb[52]
*291 la_oenb[53]
*292 la_oenb[54]
*293 la_oenb[55]
*294 la_oenb[56]
*295 la_oenb[57]
*296 la_oenb[58]
*297 la_oenb[59]
*298 la_oenb[5]
*299 la_oenb[60]
*300 la_oenb[61]
*301 la_oenb[62]
*302 la_oenb[63]
*303 la_oenb[6]
*304 la_oenb[7]
*305 la_oenb[8]
*306 la_oenb[9]
*307 user_clock2
*308 net153
*309 net154
*310 net155
*313 wb_clk_i
*314 wb_rst_i
*315 net156
*316 wbs_adr_i[0]
*317 wbs_adr_i[10]
*318 wbs_adr_i[11]
*319 wbs_adr_i[12]
*320 wbs_adr_i[13]
*321 wbs_adr_i[14]
*322 wbs_adr_i[15]
*323 wbs_adr_i[16]
*324 wbs_adr_i[17]
*325 wbs_adr_i[18]
*326 wbs_adr_i[19]
*327 wbs_adr_i[1]
*328 wbs_adr_i[20]
*329 wbs_adr_i[21]
*330 wbs_adr_i[22]
*331 wbs_adr_i[23]
*332 wbs_adr_i[24]
*333 wbs_adr_i[25]
*334 wbs_adr_i[26]
*335 wbs_adr_i[27]
*336 wbs_adr_i[28]
*337 wbs_adr_i[29]
*338 wbs_adr_i[2]
*339 wbs_adr_i[30]
*340 wbs_adr_i[31]
*341 wbs_adr_i[3]
*342 wbs_adr_i[4]
*343 wbs_adr_i[5]
*344 wbs_adr_i[6]
*345 wbs_adr_i[7]
*346 wbs_adr_i[8]
*347 wbs_adr_i[9]
*348 wbs_cyc_i
*349 wbs_dat_i[0]
*350 wbs_dat_i[10]
*351 wbs_dat_i[11]
*352 wbs_dat_i[12]
*353 wbs_dat_i[13]
*354 wbs_dat_i[14]
*355 wbs_dat_i[15]
*356 wbs_dat_i[16]
*357 wbs_dat_i[17]
*358 wbs_dat_i[18]
*359 wbs_dat_i[19]
*360 wbs_dat_i[1]
*361 wbs_dat_i[20]
*362 wbs_dat_i[21]
*363 wbs_dat_i[22]
*364 wbs_dat_i[23]
*365 wbs_dat_i[24]
*366 wbs_dat_i[25]
*367 wbs_dat_i[26]
*368 wbs_dat_i[27]
*369 wbs_dat_i[28]
*370 wbs_dat_i[29]
*371 wbs_dat_i[2]
*372 wbs_dat_i[30]
*373 wbs_dat_i[31]
*374 wbs_dat_i[3]
*375 wbs_dat_i[4]
*376 wbs_dat_i[5]
*377 wbs_dat_i[6]
*378 wbs_dat_i[7]
*379 wbs_dat_i[8]
*380 wbs_dat_i[9]
*381 net157
*382 net167
*383 net168
*384 net169
*385 net170
*386 net171
*387 net172
*388 net173
*389 net174
*390 net175
*391 net176
*392 net158
*393 net177
*394 net178
*395 net179
*396 net180
*397 net181
*398 net182
*399 net183
*400 net184
*401 net185
*402 net186
*403 net159
*404 net187
*405 net188
*406 net160
*407 net161
*408 net162
*409 net163
*410 net164
*411 net165
*412 net166
*413 wbs_sel_i[0]
*414 wbs_sel_i[1]
*415 wbs_sel_i[2]
*416 wbs_sel_i[3]
*417 wbs_stb_i
*418 wbs_we_i
*419 _000_
*420 _001_
*421 _002_
*422 _003_
*423 _004_
*424 _005_
*425 _006_
*426 _007_
*427 net1
*428 net10
*429 net11
*430 net12
*431 net13
*432 net14
*433 net15
*434 net16
*435 net17
*436 net18
*437 net19
*438 net2
*439 net20
*440 net21
*441 net22
*442 net23
*443 net24
*444 net3
*445 net4
*446 net5
*447 net6
*448 net7
*449 net8
*450 net9
*451 ANTENNA__008__I0
*452 ANTENNA__008__I1
*453 ANTENNA__010__I0
*454 ANTENNA__010__I1
*455 ANTENNA__010__S
*456 ANTENNA__012__I0
*457 ANTENNA__012__I1
*458 ANTENNA__012__S
*459 ANTENNA__014__I0
*460 ANTENNA__014__I1
*461 ANTENNA__014__S
*462 ANTENNA__016__I0
*463 ANTENNA__016__I1
*464 ANTENNA__016__S
*465 ANTENNA__018__I0
*466 ANTENNA__018__S
*467 ANTENNA__020__I1
*468 ANTENNA__020__S
*469 ANTENNA__022__I0
*470 ANTENNA__022__I1
*471 ANTENNA__188__I
*472 ANTENNA__190__I
*473 ANTENNA__191__I
*474 ANTENNA_input10_I
*475 ANTENNA_input11_I
*476 ANTENNA_input12_I
*477 ANTENNA_input1_I
*478 ANTENNA_input2_I
*479 ANTENNA_input3_I
*480 ANTENNA_input4_I
*481 ANTENNA_input5_I
*482 ANTENNA_input6_I
*483 ANTENNA_input7_I
*484 ANTENNA_input8_I
*485 ANTENNA_input9_I
*486 ANTENNA_output13_I
*487 ANTENNA_output14_I
*488 ANTENNA_output15_I
*489 ANTENNA_output17_I
*490 ANTENNA_output18_I
*491 ANTENNA_output19_I
*492 ANTENNA_output20_I
*493 ANTENNA_output21_I
*494 ANTENNA_output22_I
*495 ANTENNA_output23_I
*496 ANTENNA_output24_I
*497 FILLER_0_1005
*498 FILLER_0_101
*499 FILLER_0_1013
*500 FILLER_0_1017
*501 FILLER_0_1025
*502 FILLER_0_1037
*503 FILLER_0_1039
*504 FILLER_0_1044
*505 FILLER_0_107
*506 FILLER_0_11
*507 FILLER_0_115
*508 FILLER_0_119
*509 FILLER_0_125
*510 FILLER_0_133
*511 FILLER_0_137
*512 FILLER_0_139
*513 FILLER_0_142
*514 FILLER_0_174
*515 FILLER_0_177
*516 FILLER_0_2
*517 FILLER_0_209
*518 FILLER_0_212
*519 FILLER_0_228
*520 FILLER_0_233
*521 FILLER_0_237
*522 FILLER_0_239
*523 FILLER_0_244
*524 FILLER_0_247
*525 FILLER_0_251
*526 FILLER_0_257
*527 FILLER_0_263
*528 FILLER_0_27
*529 FILLER_0_279
*530 FILLER_0_282
*531 FILLER_0_287
*532 FILLER_0_299
*533 FILLER_0_317
*534 FILLER_0_323
*535 FILLER_0_329
*536 FILLER_0_345
*537 FILLER_0_349
*538 FILLER_0_352
*539 FILLER_0_368
*540 FILLER_0_37
*541 FILLER_0_384
*542 FILLER_0_387
*543 FILLER_0_405
*544 FILLER_0_409
*545 FILLER_0_413
*546 FILLER_0_419
*547 FILLER_0_422
*548 FILLER_0_426
*549 FILLER_0_431
*550 FILLER_0_447
*551 FILLER_0_449
*552 FILLER_0_454
*553 FILLER_0_457
*554 FILLER_0_462
*555 FILLER_0_464
*556 FILLER_0_467
*557 FILLER_0_483
*558 FILLER_0_489
*559 FILLER_0_492
*560 FILLER_0_508
*561 FILLER_0_516
*562 FILLER_0_521
*563 FILLER_0_527
*564 FILLER_0_53
*565 FILLER_0_543
*566 FILLER_0_551
*567 FILLER_0_559
*568 FILLER_0_562
*569 FILLER_0_59
*570 FILLER_0_594
*571 FILLER_0_597
*572 FILLER_0_6
*573 FILLER_0_602
*574 FILLER_0_608
*575 FILLER_0_612
*576 FILLER_0_617
*577 FILLER_0_625
*578 FILLER_0_629
*579 FILLER_0_632
*580 FILLER_0_65
*581 FILLER_0_664
*582 FILLER_0_667
*583 FILLER_0_672
*584 FILLER_0_676
*585 FILLER_0_678
*586 FILLER_0_683
*587 FILLER_0_69
*588 FILLER_0_695
*589 FILLER_0_699
*590 FILLER_0_702
*591 FILLER_0_718
*592 FILLER_0_72
*593 FILLER_0_726
*594 FILLER_0_731
*595 FILLER_0_737
*596 FILLER_0_749
*597 FILLER_0_761
*598 FILLER_0_765
*599 FILLER_0_769
*600 FILLER_0_77
*601 FILLER_0_772
*602 FILLER_0_787
*603 FILLER_0_803
*604 FILLER_0_807
*605 FILLER_0_827
*606 FILLER_0_835
*607 FILLER_0_839
*608 FILLER_0_842
*609 FILLER_0_874
*610 FILLER_0_877
*611 FILLER_0_885
*612 FILLER_0_893
*613 FILLER_0_909
*614 FILLER_0_912
*615 FILLER_0_93
*616 FILLER_0_944
*617 FILLER_0_947
*618 FILLER_0_952
*619 FILLER_0_960
*620 FILLER_0_964
*621 FILLER_0_966
*622 FILLER_0_971
*623 FILLER_0_979
*624 FILLER_0_982
*625 FILLER_0_987
*626 FILLER_100_101
*627 FILLER_100_1024
*628 FILLER_100_1028
*629 FILLER_100_1031
*630 FILLER_100_1039
*631 FILLER_100_1043
*632 FILLER_100_105
*633 FILLER_100_108
*634 FILLER_100_172
*635 FILLER_100_176
*636 FILLER_100_179
*637 FILLER_100_2
*638 FILLER_100_243
*639 FILLER_100_247
*640 FILLER_100_250
*641 FILLER_100_314
*642 FILLER_100_318
*643 FILLER_100_321
*644 FILLER_100_34
*645 FILLER_100_37
*646 FILLER_100_385
*647 FILLER_100_389
*648 FILLER_100_392
*649 FILLER_100_456
*650 FILLER_100_460
*651 FILLER_100_463
*652 FILLER_100_527
*653 FILLER_100_531
*654 FILLER_100_534
*655 FILLER_100_598
*656 FILLER_100_602
*657 FILLER_100_605
*658 FILLER_100_669
*659 FILLER_100_673
*660 FILLER_100_676
*661 FILLER_100_740
*662 FILLER_100_744
*663 FILLER_100_747
*664 FILLER_100_811
*665 FILLER_100_815
*666 FILLER_100_818
*667 FILLER_100_882
*668 FILLER_100_886
*669 FILLER_100_889
*670 FILLER_100_953
*671 FILLER_100_957
*672 FILLER_100_960
*673 FILLER_101_1028
*674 FILLER_101_1036
*675 FILLER_101_1044
*676 FILLER_101_137
*677 FILLER_101_141
*678 FILLER_101_144
*679 FILLER_101_2
*680 FILLER_101_208
*681 FILLER_101_212
*682 FILLER_101_215
*683 FILLER_101_279
*684 FILLER_101_283
*685 FILLER_101_286
*686 FILLER_101_350
*687 FILLER_101_354
*688 FILLER_101_357
*689 FILLER_101_421
*690 FILLER_101_425
*691 FILLER_101_428
*692 FILLER_101_492
*693 FILLER_101_496
*694 FILLER_101_499
*695 FILLER_101_563
*696 FILLER_101_567
*697 FILLER_101_570
*698 FILLER_101_634
*699 FILLER_101_638
*700 FILLER_101_641
*701 FILLER_101_66
*702 FILLER_101_70
*703 FILLER_101_705
*704 FILLER_101_709
*705 FILLER_101_712
*706 FILLER_101_73
*707 FILLER_101_776
*708 FILLER_101_780
*709 FILLER_101_783
*710 FILLER_101_847
*711 FILLER_101_851
*712 FILLER_101_854
*713 FILLER_101_918
*714 FILLER_101_922
*715 FILLER_101_925
*716 FILLER_101_989
*717 FILLER_101_993
*718 FILLER_101_996
*719 FILLER_102_101
*720 FILLER_102_1024
*721 FILLER_102_1028
*722 FILLER_102_1031
*723 FILLER_102_1039
*724 FILLER_102_1043
*725 FILLER_102_105
*726 FILLER_102_108
*727 FILLER_102_13
*728 FILLER_102_172
*729 FILLER_102_176
*730 FILLER_102_179
*731 FILLER_102_2
*732 FILLER_102_243
*733 FILLER_102_247
*734 FILLER_102_250
*735 FILLER_102_29
*736 FILLER_102_314
*737 FILLER_102_318
*738 FILLER_102_321
*739 FILLER_102_33
*740 FILLER_102_37
*741 FILLER_102_385
*742 FILLER_102_389
*743 FILLER_102_392
*744 FILLER_102_456
*745 FILLER_102_460
*746 FILLER_102_463
*747 FILLER_102_527
*748 FILLER_102_531
*749 FILLER_102_534
*750 FILLER_102_598
*751 FILLER_102_602
*752 FILLER_102_605
*753 FILLER_102_669
*754 FILLER_102_673
*755 FILLER_102_676
*756 FILLER_102_7
*757 FILLER_102_740
*758 FILLER_102_744
*759 FILLER_102_747
*760 FILLER_102_811
*761 FILLER_102_815
*762 FILLER_102_818
*763 FILLER_102_882
*764 FILLER_102_886
*765 FILLER_102_889
*766 FILLER_102_953
*767 FILLER_102_957
*768 FILLER_102_960
*769 FILLER_103_1028
*770 FILLER_103_1036
*771 FILLER_103_1044
*772 FILLER_103_137
*773 FILLER_103_141
*774 FILLER_103_144
*775 FILLER_103_2
*776 FILLER_103_208
*777 FILLER_103_212
*778 FILLER_103_215
*779 FILLER_103_279
*780 FILLER_103_283
*781 FILLER_103_286
*782 FILLER_103_350
*783 FILLER_103_354
*784 FILLER_103_357
*785 FILLER_103_421
*786 FILLER_103_425
*787 FILLER_103_428
*788 FILLER_103_492
*789 FILLER_103_496
*790 FILLER_103_499
*791 FILLER_103_563
*792 FILLER_103_567
*793 FILLER_103_570
*794 FILLER_103_634
*795 FILLER_103_638
*796 FILLER_103_641
*797 FILLER_103_66
*798 FILLER_103_70
*799 FILLER_103_705
*800 FILLER_103_709
*801 FILLER_103_712
*802 FILLER_103_73
*803 FILLER_103_776
*804 FILLER_103_780
*805 FILLER_103_783
*806 FILLER_103_847
*807 FILLER_103_851
*808 FILLER_103_854
*809 FILLER_103_918
*810 FILLER_103_922
*811 FILLER_103_925
*812 FILLER_103_989
*813 FILLER_103_993
*814 FILLER_103_996
*815 FILLER_104_101
*816 FILLER_104_1024
*817 FILLER_104_1028
*818 FILLER_104_1031
*819 FILLER_104_1039
*820 FILLER_104_1043
*821 FILLER_104_105
*822 FILLER_104_108
*823 FILLER_104_17
*824 FILLER_104_172
*825 FILLER_104_176
*826 FILLER_104_179
*827 FILLER_104_2
*828 FILLER_104_21
*829 FILLER_104_243
*830 FILLER_104_247
*831 FILLER_104_250
*832 FILLER_104_29
*833 FILLER_104_314
*834 FILLER_104_318
*835 FILLER_104_321
*836 FILLER_104_33
*837 FILLER_104_37
*838 FILLER_104_385
*839 FILLER_104_389
*840 FILLER_104_392
*841 FILLER_104_456
*842 FILLER_104_460
*843 FILLER_104_463
*844 FILLER_104_527
*845 FILLER_104_531
*846 FILLER_104_534
*847 FILLER_104_598
*848 FILLER_104_602
*849 FILLER_104_605
*850 FILLER_104_669
*851 FILLER_104_673
*852 FILLER_104_676
*853 FILLER_104_740
*854 FILLER_104_744
*855 FILLER_104_747
*856 FILLER_104_811
*857 FILLER_104_815
*858 FILLER_104_818
*859 FILLER_104_882
*860 FILLER_104_886
*861 FILLER_104_889
*862 FILLER_104_953
*863 FILLER_104_957
*864 FILLER_104_960
*865 FILLER_105_1028
*866 FILLER_105_1044
*867 FILLER_105_137
*868 FILLER_105_141
*869 FILLER_105_144
*870 FILLER_105_2
*871 FILLER_105_208
*872 FILLER_105_212
*873 FILLER_105_215
*874 FILLER_105_279
*875 FILLER_105_283
*876 FILLER_105_286
*877 FILLER_105_350
*878 FILLER_105_354
*879 FILLER_105_357
*880 FILLER_105_421
*881 FILLER_105_425
*882 FILLER_105_428
*883 FILLER_105_492
*884 FILLER_105_496
*885 FILLER_105_499
*886 FILLER_105_563
*887 FILLER_105_567
*888 FILLER_105_570
*889 FILLER_105_634
*890 FILLER_105_638
*891 FILLER_105_641
*892 FILLER_105_66
*893 FILLER_105_70
*894 FILLER_105_705
*895 FILLER_105_709
*896 FILLER_105_712
*897 FILLER_105_73
*898 FILLER_105_776
*899 FILLER_105_780
*900 FILLER_105_783
*901 FILLER_105_847
*902 FILLER_105_851
*903 FILLER_105_854
*904 FILLER_105_918
*905 FILLER_105_922
*906 FILLER_105_925
*907 FILLER_105_989
*908 FILLER_105_993
*909 FILLER_105_996
*910 FILLER_106_101
*911 FILLER_106_1024
*912 FILLER_106_1028
*913 FILLER_106_1031
*914 FILLER_106_1039
*915 FILLER_106_1043
*916 FILLER_106_105
*917 FILLER_106_108
*918 FILLER_106_172
*919 FILLER_106_176
*920 FILLER_106_179
*921 FILLER_106_2
*922 FILLER_106_243
*923 FILLER_106_247
*924 FILLER_106_250
*925 FILLER_106_314
*926 FILLER_106_318
*927 FILLER_106_321
*928 FILLER_106_34
*929 FILLER_106_37
*930 FILLER_106_385
*931 FILLER_106_389
*932 FILLER_106_392
*933 FILLER_106_456
*934 FILLER_106_460
*935 FILLER_106_463
*936 FILLER_106_527
*937 FILLER_106_531
*938 FILLER_106_534
*939 FILLER_106_598
*940 FILLER_106_602
*941 FILLER_106_605
*942 FILLER_106_669
*943 FILLER_106_673
*944 FILLER_106_676
*945 FILLER_106_740
*946 FILLER_106_744
*947 FILLER_106_747
*948 FILLER_106_811
*949 FILLER_106_815
*950 FILLER_106_818
*951 FILLER_106_882
*952 FILLER_106_886
*953 FILLER_106_889
*954 FILLER_106_953
*955 FILLER_106_957
*956 FILLER_106_960
*957 FILLER_107_1028
*958 FILLER_107_1044
*959 FILLER_107_137
*960 FILLER_107_141
*961 FILLER_107_144
*962 FILLER_107_2
*963 FILLER_107_208
*964 FILLER_107_212
*965 FILLER_107_215
*966 FILLER_107_279
*967 FILLER_107_283
*968 FILLER_107_286
*969 FILLER_107_350
*970 FILLER_107_354
*971 FILLER_107_357
*972 FILLER_107_421
*973 FILLER_107_425
*974 FILLER_107_428
*975 FILLER_107_492
*976 FILLER_107_496
*977 FILLER_107_499
*978 FILLER_107_563
*979 FILLER_107_567
*980 FILLER_107_570
*981 FILLER_107_634
*982 FILLER_107_638
*983 FILLER_107_641
*984 FILLER_107_66
*985 FILLER_107_70
*986 FILLER_107_705
*987 FILLER_107_709
*988 FILLER_107_712
*989 FILLER_107_73
*990 FILLER_107_776
*991 FILLER_107_780
*992 FILLER_107_783
*993 FILLER_107_847
*994 FILLER_107_851
*995 FILLER_107_854
*996 FILLER_107_918
*997 FILLER_107_922
*998 FILLER_107_925
*999 FILLER_107_989
*1000 FILLER_107_993
*1001 FILLER_107_996
*1002 FILLER_108_101
*1003 FILLER_108_1024
*1004 FILLER_108_1028
*1005 FILLER_108_1031
*1006 FILLER_108_1039
*1007 FILLER_108_1044
*1008 FILLER_108_105
*1009 FILLER_108_108
*1010 FILLER_108_172
*1011 FILLER_108_176
*1012 FILLER_108_179
*1013 FILLER_108_2
*1014 FILLER_108_243
*1015 FILLER_108_247
*1016 FILLER_108_250
*1017 FILLER_108_314
*1018 FILLER_108_318
*1019 FILLER_108_321
*1020 FILLER_108_34
*1021 FILLER_108_37
*1022 FILLER_108_385
*1023 FILLER_108_389
*1024 FILLER_108_392
*1025 FILLER_108_456
*1026 FILLER_108_460
*1027 FILLER_108_463
*1028 FILLER_108_527
*1029 FILLER_108_531
*1030 FILLER_108_534
*1031 FILLER_108_598
*1032 FILLER_108_602
*1033 FILLER_108_605
*1034 FILLER_108_669
*1035 FILLER_108_673
*1036 FILLER_108_676
*1037 FILLER_108_740
*1038 FILLER_108_744
*1039 FILLER_108_747
*1040 FILLER_108_811
*1041 FILLER_108_815
*1042 FILLER_108_818
*1043 FILLER_108_882
*1044 FILLER_108_886
*1045 FILLER_108_889
*1046 FILLER_108_953
*1047 FILLER_108_957
*1048 FILLER_108_960
*1049 FILLER_109_1028
*1050 FILLER_109_1044
*1051 FILLER_109_137
*1052 FILLER_109_141
*1053 FILLER_109_144
*1054 FILLER_109_2
*1055 FILLER_109_208
*1056 FILLER_109_212
*1057 FILLER_109_215
*1058 FILLER_109_279
*1059 FILLER_109_283
*1060 FILLER_109_286
*1061 FILLER_109_350
*1062 FILLER_109_354
*1063 FILLER_109_357
*1064 FILLER_109_421
*1065 FILLER_109_425
*1066 FILLER_109_428
*1067 FILLER_109_492
*1068 FILLER_109_496
*1069 FILLER_109_499
*1070 FILLER_109_563
*1071 FILLER_109_567
*1072 FILLER_109_570
*1073 FILLER_109_634
*1074 FILLER_109_638
*1075 FILLER_109_641
*1076 FILLER_109_66
*1077 FILLER_109_70
*1078 FILLER_109_705
*1079 FILLER_109_709
*1080 FILLER_109_712
*1081 FILLER_109_73
*1082 FILLER_109_776
*1083 FILLER_109_780
*1084 FILLER_109_783
*1085 FILLER_109_847
*1086 FILLER_109_851
*1087 FILLER_109_854
*1088 FILLER_109_918
*1089 FILLER_109_922
*1090 FILLER_109_925
*1091 FILLER_109_989
*1092 FILLER_109_993
*1093 FILLER_109_996
*1094 FILLER_10_101
*1095 FILLER_10_1024
*1096 FILLER_10_1028
*1097 FILLER_10_1031
*1098 FILLER_10_1039
*1099 FILLER_10_1043
*1100 FILLER_10_105
*1101 FILLER_10_108
*1102 FILLER_10_172
*1103 FILLER_10_176
*1104 FILLER_10_179
*1105 FILLER_10_2
*1106 FILLER_10_23
*1107 FILLER_10_243
*1108 FILLER_10_247
*1109 FILLER_10_250
*1110 FILLER_10_31
*1111 FILLER_10_314
*1112 FILLER_10_318
*1113 FILLER_10_321
*1114 FILLER_10_37
*1115 FILLER_10_385
*1116 FILLER_10_389
*1117 FILLER_10_392
*1118 FILLER_10_456
*1119 FILLER_10_460
*1120 FILLER_10_463
*1121 FILLER_10_527
*1122 FILLER_10_531
*1123 FILLER_10_534
*1124 FILLER_10_598
*1125 FILLER_10_602
*1126 FILLER_10_605
*1127 FILLER_10_669
*1128 FILLER_10_673
*1129 FILLER_10_676
*1130 FILLER_10_7
*1131 FILLER_10_740
*1132 FILLER_10_744
*1133 FILLER_10_747
*1134 FILLER_10_811
*1135 FILLER_10_815
*1136 FILLER_10_818
*1137 FILLER_10_882
*1138 FILLER_10_886
*1139 FILLER_10_889
*1140 FILLER_10_953
*1141 FILLER_10_957
*1142 FILLER_10_960
*1143 FILLER_110_101
*1144 FILLER_110_1024
*1145 FILLER_110_1028
*1146 FILLER_110_1031
*1147 FILLER_110_1039
*1148 FILLER_110_1043
*1149 FILLER_110_105
*1150 FILLER_110_108
*1151 FILLER_110_172
*1152 FILLER_110_176
*1153 FILLER_110_179
*1154 FILLER_110_2
*1155 FILLER_110_21
*1156 FILLER_110_243
*1157 FILLER_110_247
*1158 FILLER_110_250
*1159 FILLER_110_29
*1160 FILLER_110_314
*1161 FILLER_110_318
*1162 FILLER_110_321
*1163 FILLER_110_33
*1164 FILLER_110_37
*1165 FILLER_110_385
*1166 FILLER_110_389
*1167 FILLER_110_392
*1168 FILLER_110_456
*1169 FILLER_110_460
*1170 FILLER_110_463
*1171 FILLER_110_5
*1172 FILLER_110_527
*1173 FILLER_110_531
*1174 FILLER_110_534
*1175 FILLER_110_598
*1176 FILLER_110_602
*1177 FILLER_110_605
*1178 FILLER_110_669
*1179 FILLER_110_673
*1180 FILLER_110_676
*1181 FILLER_110_740
*1182 FILLER_110_744
*1183 FILLER_110_747
*1184 FILLER_110_811
*1185 FILLER_110_815
*1186 FILLER_110_818
*1187 FILLER_110_882
*1188 FILLER_110_886
*1189 FILLER_110_889
*1190 FILLER_110_953
*1191 FILLER_110_957
*1192 FILLER_110_960
*1193 FILLER_111_1028
*1194 FILLER_111_1044
*1195 FILLER_111_137
*1196 FILLER_111_141
*1197 FILLER_111_144
*1198 FILLER_111_19
*1199 FILLER_111_2
*1200 FILLER_111_208
*1201 FILLER_111_212
*1202 FILLER_111_215
*1203 FILLER_111_279
*1204 FILLER_111_283
*1205 FILLER_111_286
*1206 FILLER_111_350
*1207 FILLER_111_354
*1208 FILLER_111_357
*1209 FILLER_111_421
*1210 FILLER_111_425
*1211 FILLER_111_428
*1212 FILLER_111_492
*1213 FILLER_111_496
*1214 FILLER_111_499
*1215 FILLER_111_51
*1216 FILLER_111_563
*1217 FILLER_111_567
*1218 FILLER_111_570
*1219 FILLER_111_634
*1220 FILLER_111_638
*1221 FILLER_111_641
*1222 FILLER_111_67
*1223 FILLER_111_705
*1224 FILLER_111_709
*1225 FILLER_111_712
*1226 FILLER_111_73
*1227 FILLER_111_776
*1228 FILLER_111_780
*1229 FILLER_111_783
*1230 FILLER_111_847
*1231 FILLER_111_851
*1232 FILLER_111_854
*1233 FILLER_111_918
*1234 FILLER_111_922
*1235 FILLER_111_925
*1236 FILLER_111_989
*1237 FILLER_111_993
*1238 FILLER_111_996
*1239 FILLER_112_101
*1240 FILLER_112_1024
*1241 FILLER_112_1028
*1242 FILLER_112_1031
*1243 FILLER_112_1039
*1244 FILLER_112_1044
*1245 FILLER_112_105
*1246 FILLER_112_108
*1247 FILLER_112_172
*1248 FILLER_112_176
*1249 FILLER_112_179
*1250 FILLER_112_2
*1251 FILLER_112_23
*1252 FILLER_112_243
*1253 FILLER_112_247
*1254 FILLER_112_250
*1255 FILLER_112_31
*1256 FILLER_112_314
*1257 FILLER_112_318
*1258 FILLER_112_321
*1259 FILLER_112_37
*1260 FILLER_112_385
*1261 FILLER_112_389
*1262 FILLER_112_392
*1263 FILLER_112_456
*1264 FILLER_112_460
*1265 FILLER_112_463
*1266 FILLER_112_527
*1267 FILLER_112_531
*1268 FILLER_112_534
*1269 FILLER_112_598
*1270 FILLER_112_602
*1271 FILLER_112_605
*1272 FILLER_112_669
*1273 FILLER_112_673
*1274 FILLER_112_676
*1275 FILLER_112_7
*1276 FILLER_112_740
*1277 FILLER_112_744
*1278 FILLER_112_747
*1279 FILLER_112_811
*1280 FILLER_112_815
*1281 FILLER_112_818
*1282 FILLER_112_882
*1283 FILLER_112_886
*1284 FILLER_112_889
*1285 FILLER_112_953
*1286 FILLER_112_957
*1287 FILLER_112_960
*1288 FILLER_113_1028
*1289 FILLER_113_1044
*1290 FILLER_113_137
*1291 FILLER_113_141
*1292 FILLER_113_144
*1293 FILLER_113_2
*1294 FILLER_113_208
*1295 FILLER_113_212
*1296 FILLER_113_215
*1297 FILLER_113_279
*1298 FILLER_113_283
*1299 FILLER_113_286
*1300 FILLER_113_350
*1301 FILLER_113_354
*1302 FILLER_113_357
*1303 FILLER_113_421
*1304 FILLER_113_425
*1305 FILLER_113_428
*1306 FILLER_113_492
*1307 FILLER_113_496
*1308 FILLER_113_499
*1309 FILLER_113_563
*1310 FILLER_113_567
*1311 FILLER_113_570
*1312 FILLER_113_634
*1313 FILLER_113_638
*1314 FILLER_113_641
*1315 FILLER_113_66
*1316 FILLER_113_70
*1317 FILLER_113_705
*1318 FILLER_113_709
*1319 FILLER_113_712
*1320 FILLER_113_73
*1321 FILLER_113_776
*1322 FILLER_113_780
*1323 FILLER_113_783
*1324 FILLER_113_847
*1325 FILLER_113_851
*1326 FILLER_113_854
*1327 FILLER_113_918
*1328 FILLER_113_922
*1329 FILLER_113_925
*1330 FILLER_113_989
*1331 FILLER_113_993
*1332 FILLER_113_996
*1333 FILLER_114_101
*1334 FILLER_114_1024
*1335 FILLER_114_1028
*1336 FILLER_114_1031
*1337 FILLER_114_1039
*1338 FILLER_114_1043
*1339 FILLER_114_105
*1340 FILLER_114_108
*1341 FILLER_114_172
*1342 FILLER_114_176
*1343 FILLER_114_179
*1344 FILLER_114_2
*1345 FILLER_114_23
*1346 FILLER_114_243
*1347 FILLER_114_247
*1348 FILLER_114_250
*1349 FILLER_114_31
*1350 FILLER_114_314
*1351 FILLER_114_318
*1352 FILLER_114_321
*1353 FILLER_114_37
*1354 FILLER_114_385
*1355 FILLER_114_389
*1356 FILLER_114_392
*1357 FILLER_114_456
*1358 FILLER_114_460
*1359 FILLER_114_463
*1360 FILLER_114_527
*1361 FILLER_114_531
*1362 FILLER_114_534
*1363 FILLER_114_598
*1364 FILLER_114_602
*1365 FILLER_114_605
*1366 FILLER_114_669
*1367 FILLER_114_673
*1368 FILLER_114_676
*1369 FILLER_114_7
*1370 FILLER_114_740
*1371 FILLER_114_744
*1372 FILLER_114_747
*1373 FILLER_114_811
*1374 FILLER_114_815
*1375 FILLER_114_818
*1376 FILLER_114_882
*1377 FILLER_114_886
*1378 FILLER_114_889
*1379 FILLER_114_953
*1380 FILLER_114_957
*1381 FILLER_114_960
*1382 FILLER_115_1028
*1383 FILLER_115_1044
*1384 FILLER_115_137
*1385 FILLER_115_141
*1386 FILLER_115_144
*1387 FILLER_115_2
*1388 FILLER_115_208
*1389 FILLER_115_212
*1390 FILLER_115_215
*1391 FILLER_115_279
*1392 FILLER_115_283
*1393 FILLER_115_286
*1394 FILLER_115_350
*1395 FILLER_115_354
*1396 FILLER_115_357
*1397 FILLER_115_421
*1398 FILLER_115_425
*1399 FILLER_115_428
*1400 FILLER_115_492
*1401 FILLER_115_496
*1402 FILLER_115_499
*1403 FILLER_115_563
*1404 FILLER_115_567
*1405 FILLER_115_570
*1406 FILLER_115_634
*1407 FILLER_115_638
*1408 FILLER_115_641
*1409 FILLER_115_66
*1410 FILLER_115_70
*1411 FILLER_115_705
*1412 FILLER_115_709
*1413 FILLER_115_712
*1414 FILLER_115_73
*1415 FILLER_115_776
*1416 FILLER_115_780
*1417 FILLER_115_783
*1418 FILLER_115_847
*1419 FILLER_115_851
*1420 FILLER_115_854
*1421 FILLER_115_918
*1422 FILLER_115_922
*1423 FILLER_115_925
*1424 FILLER_115_989
*1425 FILLER_115_993
*1426 FILLER_115_996
*1427 FILLER_116_101
*1428 FILLER_116_1024
*1429 FILLER_116_1028
*1430 FILLER_116_1031
*1431 FILLER_116_1039
*1432 FILLER_116_1043
*1433 FILLER_116_105
*1434 FILLER_116_108
*1435 FILLER_116_172
*1436 FILLER_116_176
*1437 FILLER_116_179
*1438 FILLER_116_2
*1439 FILLER_116_243
*1440 FILLER_116_247
*1441 FILLER_116_250
*1442 FILLER_116_314
*1443 FILLER_116_318
*1444 FILLER_116_321
*1445 FILLER_116_34
*1446 FILLER_116_37
*1447 FILLER_116_385
*1448 FILLER_116_389
*1449 FILLER_116_392
*1450 FILLER_116_456
*1451 FILLER_116_460
*1452 FILLER_116_463
*1453 FILLER_116_527
*1454 FILLER_116_531
*1455 FILLER_116_534
*1456 FILLER_116_598
*1457 FILLER_116_602
*1458 FILLER_116_605
*1459 FILLER_116_669
*1460 FILLER_116_673
*1461 FILLER_116_676
*1462 FILLER_116_740
*1463 FILLER_116_744
*1464 FILLER_116_747
*1465 FILLER_116_811
*1466 FILLER_116_815
*1467 FILLER_116_818
*1468 FILLER_116_882
*1469 FILLER_116_886
*1470 FILLER_116_889
*1471 FILLER_116_953
*1472 FILLER_116_957
*1473 FILLER_116_960
*1474 FILLER_117_1028
*1475 FILLER_117_1044
*1476 FILLER_117_137
*1477 FILLER_117_141
*1478 FILLER_117_144
*1479 FILLER_117_2
*1480 FILLER_117_208
*1481 FILLER_117_212
*1482 FILLER_117_215
*1483 FILLER_117_279
*1484 FILLER_117_283
*1485 FILLER_117_286
*1486 FILLER_117_350
*1487 FILLER_117_354
*1488 FILLER_117_357
*1489 FILLER_117_421
*1490 FILLER_117_425
*1491 FILLER_117_428
*1492 FILLER_117_492
*1493 FILLER_117_496
*1494 FILLER_117_499
*1495 FILLER_117_563
*1496 FILLER_117_567
*1497 FILLER_117_570
*1498 FILLER_117_634
*1499 FILLER_117_638
*1500 FILLER_117_641
*1501 FILLER_117_7
*1502 FILLER_117_705
*1503 FILLER_117_709
*1504 FILLER_117_712
*1505 FILLER_117_73
*1506 FILLER_117_776
*1507 FILLER_117_780
*1508 FILLER_117_783
*1509 FILLER_117_847
*1510 FILLER_117_851
*1511 FILLER_117_854
*1512 FILLER_117_918
*1513 FILLER_117_922
*1514 FILLER_117_925
*1515 FILLER_117_989
*1516 FILLER_117_993
*1517 FILLER_117_996
*1518 FILLER_118_101
*1519 FILLER_118_1024
*1520 FILLER_118_1028
*1521 FILLER_118_1031
*1522 FILLER_118_1039
*1523 FILLER_118_1044
*1524 FILLER_118_105
*1525 FILLER_118_108
*1526 FILLER_118_172
*1527 FILLER_118_176
*1528 FILLER_118_179
*1529 FILLER_118_2
*1530 FILLER_118_243
*1531 FILLER_118_247
*1532 FILLER_118_250
*1533 FILLER_118_314
*1534 FILLER_118_318
*1535 FILLER_118_321
*1536 FILLER_118_34
*1537 FILLER_118_37
*1538 FILLER_118_385
*1539 FILLER_118_389
*1540 FILLER_118_392
*1541 FILLER_118_456
*1542 FILLER_118_460
*1543 FILLER_118_463
*1544 FILLER_118_527
*1545 FILLER_118_531
*1546 FILLER_118_534
*1547 FILLER_118_598
*1548 FILLER_118_602
*1549 FILLER_118_605
*1550 FILLER_118_669
*1551 FILLER_118_673
*1552 FILLER_118_676
*1553 FILLER_118_740
*1554 FILLER_118_744
*1555 FILLER_118_747
*1556 FILLER_118_811
*1557 FILLER_118_815
*1558 FILLER_118_818
*1559 FILLER_118_882
*1560 FILLER_118_886
*1561 FILLER_118_889
*1562 FILLER_118_953
*1563 FILLER_118_957
*1564 FILLER_118_960
*1565 FILLER_119_1028
*1566 FILLER_119_1044
*1567 FILLER_119_137
*1568 FILLER_119_141
*1569 FILLER_119_144
*1570 FILLER_119_2
*1571 FILLER_119_208
*1572 FILLER_119_212
*1573 FILLER_119_215
*1574 FILLER_119_279
*1575 FILLER_119_283
*1576 FILLER_119_286
*1577 FILLER_119_350
*1578 FILLER_119_354
*1579 FILLER_119_357
*1580 FILLER_119_421
*1581 FILLER_119_425
*1582 FILLER_119_428
*1583 FILLER_119_492
*1584 FILLER_119_496
*1585 FILLER_119_499
*1586 FILLER_119_563
*1587 FILLER_119_567
*1588 FILLER_119_570