*SPEF "ieee 1481-1999"
*DESIGN "user_project_wrapper"
*DATE "11:11:11 Fri 11 11, 1111"
*VENDOR "OpenRCX"
*PROGRAM "Parallel Extraction"
*VERSION "1.0"
*DESIGN_FLOW "NAME_SCOPE LOCAL" "PIN_CAP NONE"
*DIVIDER /
*DELIMITER :
*BUS_DELIMITER []
*T_UNIT 1 NS
*C_UNIT 1 PF
*R_UNIT 1 OHM
*L_UNIT 1 HENRY

*NAME_MAP
*1 io_in[0]
*2 io_in[10]
*3 io_in[11]
*4 io_in[12]
*5 io_in[13]
*6 io_in[14]
*7 io_in[15]
*8 io_in[16]
*9 io_in[17]
*10 io_in[18]
*11 io_in[19]
*12 io_in[1]
*13 io_in[20]
*14 io_in[21]
*15 io_in[22]
*16 io_in[23]
*17 io_in[24]
*18 io_in[25]
*19 io_in[26]
*20 io_in[27]
*21 io_in[28]
*22 io_in[29]
*23 io_in[2]
*24 io_in[30]
*25 io_in[31]
*26 io_in[32]
*27 io_in[33]
*28 io_in[34]
*29 io_in[35]
*30 io_in[36]
*31 io_in[37]
*32 io_in[3]
*33 io_in[4]
*34 io_in[5]
*35 io_in[6]
*36 io_in[7]
*37 io_in[8]
*38 io_in[9]
*39 io_oeb[0]
*40 io_oeb[10]
*41 io_oeb[11]
*42 io_oeb[12]
*43 io_oeb[13]
*44 io_oeb[14]
*45 io_oeb[15]
*46 io_oeb[16]
*47 io_oeb[17]
*48 io_oeb[18]
*49 io_oeb[19]
*50 io_oeb[1]
*51 io_oeb[20]
*52 io_oeb[21]
*53 io_oeb[22]
*54 io_oeb[23]
*55 io_oeb[24]
*56 io_oeb[25]
*57 io_oeb[26]
*58 io_oeb[27]
*59 io_oeb[28]
*60 io_oeb[29]
*61 io_oeb[2]
*62 io_oeb[30]
*63 io_oeb[31]
*64 io_oeb[32]
*65 io_oeb[33]
*66 io_oeb[34]
*67 io_oeb[35]
*68 io_oeb[36]
*69 io_oeb[37]
*70 io_oeb[3]
*71 io_oeb[4]
*72 io_oeb[5]
*73 io_oeb[6]
*74 io_oeb[7]
*75 io_oeb[8]
*76 io_oeb[9]
*77 io_out[0]
*78 io_out[10]
*79 io_out[11]
*80 io_out[12]
*81 io_out[13]
*82 io_out[14]
*83 io_out[15]
*84 io_out[16]
*85 io_out[17]
*86 io_out[18]
*87 io_out[19]
*88 io_out[1]
*89 io_out[20]
*90 io_out[21]
*91 io_out[22]
*92 io_out[23]
*93 io_out[24]
*94 io_out[25]
*95 io_out[26]
*96 io_out[27]
*97 io_out[28]
*98 io_out[29]
*99 io_out[2]
*100 io_out[30]
*101 io_out[31]
*102 io_out[32]
*103 io_out[33]
*104 io_out[34]
*105 io_out[35]
*106 io_out[36]
*107 io_out[37]
*108 io_out[3]
*109 io_out[4]
*110 io_out[5]
*111 io_out[6]
*112 io_out[7]
*113 io_out[8]
*114 io_out[9]
*115 la_data_in[0]
*116 la_data_in[10]
*117 la_data_in[11]
*118 la_data_in[12]
*119 la_data_in[13]
*120 la_data_in[14]
*121 la_data_in[15]
*122 la_data_in[16]
*123 la_data_in[17]
*124 la_data_in[18]
*125 la_data_in[19]
*126 la_data_in[1]
*127 la_data_in[20]
*128 la_data_in[21]
*129 la_data_in[22]
*130 la_data_in[23]
*131 la_data_in[24]
*132 la_data_in[25]
*133 la_data_in[26]
*134 la_data_in[27]
*135 la_data_in[28]
*136 la_data_in[29]
*137 la_data_in[2]
*138 la_data_in[30]
*139 la_data_in[31]
*140 la_data_in[32]
*141 la_data_in[33]
*142 la_data_in[34]
*143 la_data_in[35]
*144 la_data_in[36]
*145 la_data_in[37]
*146 la_data_in[38]
*147 la_data_in[39]
*148 la_data_in[3]
*149 la_data_in[40]
*150 la_data_in[41]
*151 la_data_in[42]
*152 la_data_in[43]
*153 la_data_in[44]
*154 la_data_in[45]
*155 la_data_in[46]
*156 la_data_in[47]
*157 la_data_in[48]
*158 la_data_in[49]
*159 la_data_in[4]
*160 la_data_in[50]
*161 la_data_in[51]
*162 la_data_in[52]
*163 la_data_in[53]
*164 la_data_in[54]
*165 la_data_in[55]
*166 la_data_in[56]
*167 la_data_in[57]
*168 la_data_in[58]
*169 la_data_in[59]
*170 la_data_in[5]
*171 la_data_in[60]
*172 la_data_in[61]
*173 la_data_in[62]
*174 la_data_in[63]
*175 la_data_in[6]
*176 la_data_in[7]
*177 la_data_in[8]
*178 la_data_in[9]
*179 la_data_out[0]
*180 la_data_out[10]
*181 la_data_out[11]
*182 la_data_out[12]
*183 la_data_out[13]
*184 la_data_out[14]
*185 la_data_out[15]
*186 la_data_out[16]
*187 la_data_out[17]
*188 la_data_out[18]
*189 la_data_out[19]
*190 la_data_out[1]
*191 la_data_out[20]
*192 la_data_out[21]
*193 la_data_out[22]
*194 la_data_out[23]
*195 la_data_out[24]
*196 la_data_out[25]
*197 la_data_out[26]
*198 la_data_out[27]
*199 la_data_out[28]
*200 la_data_out[29]
*201 la_data_out[2]
*202 la_data_out[30]
*203 la_data_out[31]
*204 la_data_out[32]
*205 la_data_out[33]
*206 la_data_out[34]
*207 la_data_out[35]
*208 la_data_out[36]
*209 la_data_out[37]
*210 la_data_out[38]
*211 la_data_out[39]
*212 la_data_out[3]
*213 la_data_out[40]
*214 la_data_out[41]
*215 la_data_out[42]
*216 la_data_out[43]
*217 la_data_out[44]
*218 la_data_out[45]
*219 la_data_out[46]
*220 la_data_out[47]
*221 la_data_out[48]
*222 la_data_out[49]
*223 la_data_out[4]
*224 la_data_out[50]
*225 la_data_out[51]
*226 la_data_out[52]
*227 la_data_out[53]
*228 la_data_out[54]
*229 la_data_out[55]
*230 la_data_out[56]
*231 la_data_out[57]
*232 la_data_out[58]
*233 la_data_out[59]
*234 la_data_out[5]
*235 la_data_out[60]
*236 la_data_out[61]
*237 la_data_out[62]
*238 la_data_out[63]
*239 la_data_out[6]
*240 la_data_out[7]
*241 la_data_out[8]
*242 la_data_out[9]
*243 la_oenb[0]
*244 la_oenb[10]
*245 la_oenb[11]
*246 la_oenb[12]
*247 la_oenb[13]
*248 la_oenb[14]
*249 la_oenb[15]
*250 la_oenb[16]
*251 la_oenb[17]
*252 la_oenb[18]
*253 la_oenb[19]
*254 la_oenb[1]
*255 la_oenb[20]
*256 la_oenb[21]
*257 la_oenb[22]
*258 la_oenb[23]
*259 la_oenb[24]
*260 la_oenb[25]
*261 la_oenb[26]
*262 la_oenb[27]
*263 la_oenb[28]
*264 la_oenb[29]
*265 la_oenb[2]
*266 la_oenb[30]
*267 la_oenb[31]
*268 la_oenb[32]
*269 la_oenb[33]
*270 la_oenb[34]
*271 la_oenb[35]
*272 la_oenb[36]
*273 la_oenb[37]
*274 la_oenb[38]
*275 la_oenb[39]
*276 la_oenb[3]
*277 la_oenb[40]
*278 la_oenb[41]
*279 la_oenb[42]
*280 la_oenb[43]
*281 la_oenb[44]
*282 la_oenb[45]
*283 la_oenb[46]
*284 la_oenb[47]
*285 la_oenb[48]
*286 la_oenb[49]
*287 la_oenb[4]
*288 la_oenb[50]
*289 la_oenb[51]
*290 la_oenb[52]
*291 la_oenb[53]
*292 la_oenb[54]
*293 la_oenb[55]
*294 la_oenb[56]
*295 la_oenb[57]
*296 la_oenb[58]
*297 la_oenb[59]
*298 la_oenb[5]
*299 la_oenb[60]
*300 la_oenb[61]
*301 la_oenb[62]
*302 la_oenb[63]
*303 la_oenb[6]
*304 la_oenb[7]
*305 la_oenb[8]
*306 la_oenb[9]
*307 user_clock2
*308 user_irq[0]
*309 user_irq[1]
*310 user_irq[2]
*313 wb_clk_i
*314 wb_rst_i
*315 wbs_ack_o
*316 wbs_adr_i[0]
*317 wbs_adr_i[10]
*318 wbs_adr_i[11]
*319 wbs_adr_i[12]
*320 wbs_adr_i[13]
*321 wbs_adr_i[14]
*322 wbs_adr_i[15]
*323 wbs_adr_i[16]
*324 wbs_adr_i[17]
*325 wbs_adr_i[18]
*326 wbs_adr_i[19]
*327 wbs_adr_i[1]
*328 wbs_adr_i[20]
*329 wbs_adr_i[21]
*330 wbs_adr_i[22]
*331 wbs_adr_i[23]
*332 wbs_adr_i[24]
*333 wbs_adr_i[25]
*334 wbs_adr_i[26]
*335 wbs_adr_i[27]
*336 wbs_adr_i[28]
*337 wbs_adr_i[29]
*338 wbs_adr_i[2]
*339 wbs_adr_i[30]
*340 wbs_adr_i[31]
*341 wbs_adr_i[3]
*342 wbs_adr_i[4]
*343 wbs_adr_i[5]
*344 wbs_adr_i[6]
*345 wbs_adr_i[7]
*346 wbs_adr_i[8]
*347 wbs_adr_i[9]
*348 wbs_cyc_i
*349 wbs_dat_i[0]
*350 wbs_dat_i[10]
*351 wbs_dat_i[11]
*352 wbs_dat_i[12]
*353 wbs_dat_i[13]
*354 wbs_dat_i[14]
*355 wbs_dat_i[15]
*356 wbs_dat_i[16]
*357 wbs_dat_i[17]
*358 wbs_dat_i[18]
*359 wbs_dat_i[19]
*360 wbs_dat_i[1]
*361 wbs_dat_i[20]
*362 wbs_dat_i[21]
*363 wbs_dat_i[22]
*364 wbs_dat_i[23]
*365 wbs_dat_i[24]
*366 wbs_dat_i[25]
*367 wbs_dat_i[26]
*368 wbs_dat_i[27]
*369 wbs_dat_i[28]
*370 wbs_dat_i[29]
*371 wbs_dat_i[2]
*372 wbs_dat_i[30]
*373 wbs_dat_i[31]
*374 wbs_dat_i[3]
*375 wbs_dat_i[4]
*376 wbs_dat_i[5]
*377 wbs_dat_i[6]
*378 wbs_dat_i[7]
*379 wbs_dat_i[8]
*380 wbs_dat_i[9]
*381 wbs_dat_o[0]
*382 wbs_dat_o[10]
*383 wbs_dat_o[11]
*384 wbs_dat_o[12]
*385 wbs_dat_o[13]
*386 wbs_dat_o[14]
*387 wbs_dat_o[15]
*388 wbs_dat_o[16]
*389 wbs_dat_o[17]
*390 wbs_dat_o[18]
*391 wbs_dat_o[19]
*392 wbs_dat_o[1]
*393 wbs_dat_o[20]
*394 wbs_dat_o[21]
*395 wbs_dat_o[22]
*396 wbs_dat_o[23]
*397 wbs_dat_o[24]
*398 wbs_dat_o[25]
*399 wbs_dat_o[26]
*400 wbs_dat_o[27]
*401 wbs_dat_o[28]
*402 wbs_dat_o[29]
*403 wbs_dat_o[2]
*404 wbs_dat_o[30]
*405 wbs_dat_o[31]
*406 wbs_dat_o[3]
*407 wbs_dat_o[4]
*408 wbs_dat_o[5]
*409 wbs_dat_o[6]
*410 wbs_dat_o[7]
*411 wbs_dat_o[8]
*412 wbs_dat_o[9]
*413 wbs_sel_i[0]
*414 wbs_sel_i[1]
*415 wbs_sel_i[2]
*416 wbs_sel_i[3]
*417 wbs_stb_i
*418 wbs_we_i
*419 mprj

*PORTS
io_in[0] I
io_in[10] I
io_in[11] I
io_in[12] I
io_in[13] I
io_in[14] I
io_in[15] I
io_in[16] I
io_in[17] I
io_in[18] I
io_in[19] I
io_in[1] I
io_in[20] I
io_in[21] I
io_in[22] I
io_in[23] I
io_in[24] I
io_in[25] I
io_in[26] I
io_in[27] I
io_in[28] I
io_in[29] I
io_in[2] I
io_in[30] I
io_in[31] I
io_in[32] I
io_in[33] I
io_in[34] I
io_in[35] I
io_in[36] I
io_in[37] I
io_in[3] I
io_in[4] I
io_in[5] I
io_in[6] I
io_in[7] I
io_in[8] I
io_in[9] I
io_oeb[0] O
io_oeb[10] O
io_oeb[11] O
io_oeb[12] O
io_oeb[13] O
io_oeb[14] O
io_oeb[15] O
io_oeb[16] O
io_oeb[17] O
io_oeb[18] O
io_oeb[19] O
io_oeb[1] O
io_oeb[20] O
io_oeb[21] O
io_oeb[22] O
io_oeb[23] O
io_oeb[24] O
io_oeb[25] O
io_oeb[26] O
io_oeb[27] O
io_oeb[28] O
io_oeb[29] O
io_oeb[2] O
io_oeb[30] O
io_oeb[31] O
io_oeb[32] O
io_oeb[33] O
io_oeb[34] O
io_oeb[35] O
io_oeb[36] O
io_oeb[37] O
io_oeb[3] O
io_oeb[4] O
io_oeb[5] O
io_oeb[6] O
io_oeb[7] O
io_oeb[8] O
io_oeb[9] O
io_out[0] O
io_out[10] O
io_out[11] O
io_out[12] O
io_out[13] O
io_out[14] O
io_out[15] O
io_out[16] O
io_out[17] O
io_out[18] O
io_out[19] O
io_out[1] O
io_out[20] O
io_out[21] O
io_out[22] O
io_out[23] O
io_out[24] O
io_out[25] O
io_out[26] O
io_out[27] O
io_out[28] O
io_out[29] O
io_out[2] O
io_out[30] O
io_out[31] O
io_out[32] O
io_out[33] O
io_out[34] O
io_out[35] O
io_out[36] O
io_out[37] O
io_out[3] O
io_out[4] O
io_out[5] O
io_out[6] O
io_out[7] O
io_out[8] O
io_out[9] O
la_data_in[0] I
la_data_in[10] I
la_data_in[11] I
la_data_in[12] I
la_data_in[13] I
la_data_in[14] I
la_data_in[15] I
la_data_in[16] I
la_data_in[17] I
la_data_in[18] I
la_data_in[19] I
la_data_in[1] I
la_data_in[20] I
la_data_in[21] I
la_data_in[22] I
la_data_in[23] I
la_data_in[24] I
la_data_in[25] I
la_data_in[26] I
la_data_in[27] I
la_data_in[28] I
la_data_in[29] I
la_data_in[2] I
la_data_in[30] I
la_data_in[31] I
la_data_in[32] I
la_data_in[33] I
la_data_in[34] I
la_data_in[35] I
la_data_in[36] I
la_data_in[37] I
la_data_in[38] I
la_data_in[39] I
la_data_in[3] I
la_data_in[40] I
la_data_in[41] I
la_data_in[42] I
la_data_in[43] I
la_data_in[44] I
la_data_in[45] I
la_data_in[46] I
la_data_in[47] I
la_data_in[48] I
la_data_in[49] I
la_data_in[4] I
la_data_in[50] I
la_data_in[51] I
la_data_in[52] I
la_data_in[53] I
la_data_in[54] I
la_data_in[55] I
la_data_in[56] I
la_data_in[57] I
la_data_in[58] I
la_data_in[59] I
la_data_in[5] I
la_data_in[60] I
la_data_in[61] I
la_data_in[62] I
la_data_in[63] I
la_data_in[6] I
la_data_in[7] I
la_data_in[8] I
la_data_in[9] I
la_data_out[0] O
la_data_out[10] O
la_data_out[11] O
la_data_out[12] O
la_data_out[13] O
la_data_out[14] O
la_data_out[15] O
la_data_out[16] O
la_data_out[17] O
la_data_out[18] O
la_data_out[19] O
la_data_out[1] O
la_data_out[20] O
la_data_out[21] O
la_data_out[22] O
la_data_out[23] O
la_data_out[24] O
la_data_out[25] O
la_data_out[26] O
la_data_out[27] O
la_data_out[28] O
la_data_out[29] O
la_data_out[2] O
la_data_out[30] O
la_data_out[31] O
la_data_out[32] O
la_data_out[33] O
la_data_out[34] O
la_data_out[35] O
la_data_out[36] O
la_data_out[37] O
la_data_out[38] O
la_data_out[39] O
la_data_out[3] O
la_data_out[40] O
la_data_out[41] O
la_data_out[42] O
la_data_out[43] O
la_data_out[44] O
la_data_out[45] O
la_data_out[46] O
la_data_out[47] O
la_data_out[48] O
la_data_out[49] O
la_data_out[4] O
la_data_out[50] O
la_data_out[51] O
la_data_out[52] O
la_data_out[53] O
la_data_out[54] O
la_data_out[55] O
la_data_out[56] O
la_data_out[57] O
la_data_out[58] O
la_data_out[59] O
la_data_out[5] O
la_data_out[60] O
la_data_out[61] O
la_data_out[62] O
la_data_out[63] O
la_data_out[6] O
la_data_out[7] O
la_data_out[8] O
la_data_out[9] O
la_oenb[0] I
la_oenb[10] I
la_oenb[11] I
la_oenb[12] I
la_oenb[13] I
la_oenb[14] I
la_oenb[15] I
la_oenb[16] I
la_oenb[17] I
la_oenb[18] I
la_oenb[19] I
la_oenb[1] I
la_oenb[20] I
la_oenb[21] I
la_oenb[22] I
la_oenb[23] I
la_oenb[24] I
la_oenb[25] I
la_oenb[26] I
la_oenb[27] I
la_oenb[28] I
la_oenb[29] I
la_oenb[2] I
la_oenb[30] I
la_oenb[31] I
la_oenb[32] I
la_oenb[33] I
la_oenb[34] I
la_oenb[35] I
la_oenb[36] I
la_oenb[37] I
la_oenb[38] I
la_oenb[39] I
la_oenb[3] I
la_oenb[40] I
la_oenb[41] I
la_oenb[42] I
la_oenb[43] I
la_oenb[44] I
la_oenb[45] I
la_oenb[46] I
la_oenb[47] I
la_oenb[48] I
la_oenb[49] I
la_oenb[4] I
la_oenb[50] I
la_oenb[51] I
la_oenb[52] I
la_oenb[53] I
la_oenb[54] I
la_oenb[55] I
la_oenb[56] I
la_oenb[57] I
la_oenb[58] I
la_oenb[59] I
la_oenb[5] I
la_oenb[60] I
la_oenb[61] I
la_oenb[62] I
la_oenb[63] I
la_oenb[6] I
la_oenb[7] I
la_oenb[8] I
la_oenb[9] I
user_clock2 I
user_irq[0] O
user_irq[1] O
user_irq[2] O
wb_clk_i I
wb_rst_i I
wbs_ack_o O
wbs_adr_i[0] I
wbs_adr_i[10] I
wbs_adr_i[11] I
wbs_adr_i[12] I
wbs_adr_i[13] I
wbs_adr_i[14] I
wbs_adr_i[15] I
wbs_adr_i[16] I
wbs_adr_i[17] I
wbs_adr_i[18] I
wbs_adr_i[19] I
wbs_adr_i[1] I
wbs_adr_i[20] I
wbs_adr_i[21] I
wbs_adr_i[22] I
wbs_adr_i[23] I
wbs_adr_i[24] I
wbs_adr_i[25] I
wbs_adr_i[26] I
wbs_adr_i[27] I
wbs_adr_i[28] I
wbs_adr_i[29] I
wbs_adr_i[2] I
wbs_adr_i[30] I
wbs_adr_i[31] I
wbs_adr_i[3] I
wbs_adr_i[4] I
wbs_adr_i[5] I
wbs_adr_i[6] I
wbs_adr_i[7] I
wbs_adr_i[8] I
wbs_adr_i[9] I
wbs_cyc_i I
wbs_dat_i[0] I
wbs_dat_i[10] I
wbs_dat_i[11] I
wbs_dat_i[12] I
wbs_dat_i[13] I
wbs_dat_i[14] I
wbs_dat_i[15] I
wbs_dat_i[16] I
wbs_dat_i[17] I
wbs_dat_i[18] I
wbs_dat_i[19] I
wbs_dat_i[1] I
wbs_dat_i[20] I
wbs_dat_i[21] I
wbs_dat_i[22] I
wbs_dat_i[23] I
wbs_dat_i[24] I
wbs_dat_i[25] I
wbs_dat_i[26] I
wbs_dat_i[27] I
wbs_dat_i[28] I
wbs_dat_i[29] I
wbs_dat_i[2] I
wbs_dat_i[30] I
wbs_dat_i[31] I
wbs_dat_i[3] I
wbs_dat_i[4] I
wbs_dat_i[5] I
wbs_dat_i[6] I
wbs_dat_i[7] I
wbs_dat_i[8] I
wbs_dat_i[9] I
wbs_dat_o[0] O
wbs_dat_o[10] O
wbs_dat_o[11] O
wbs_dat_o[12] O
wbs_dat_o[13] O
wbs_dat_o[14] O
wbs_dat_o[15] O
wbs_dat_o[16] O
wbs_dat_o[17] O
wbs_dat_o[18] O
wbs_dat_o[19] O
wbs_dat_o[1] O
wbs_dat_o[20] O
wbs_dat_o[21] O
wbs_dat_o[22] O
wbs_dat_o[23] O
wbs_dat_o[24] O
wbs_dat_o[25] O
wbs_dat_o[26] O
wbs_dat_o[27] O
wbs_dat_o[28] O
wbs_dat_o[29] O
wbs_dat_o[2] O
wbs_dat_o[30] O
wbs_dat_o[31] O
wbs_dat_o[3] O
wbs_dat_o[4] O
wbs_dat_o[5] O
wbs_dat_o[6] O
wbs_dat_o[7] O
wbs_dat_o[8] O
wbs_dat_o[9] O
wbs_sel_i[0] I
wbs_sel_i[1] I
wbs_sel_i[2] I
wbs_sel_i[3] I
wbs_stb_i I
wbs_we_i I

*D_NET *1 0.341737
*CONN
*P io_in[0] I
*I *419:io_in[0] I *D tiny_user_project
*CAP
1 io_in[0] 0.00100991
2 *419:io_in[0] 0.00090368
3 *1:14 0.0173413
4 *1:13 0.0164376
5 *1:11 0.0758495
6 *1:10 0.0758495
7 *1:8 0.0347741
8 *1:7 0.035784
9 *1:14 *38:14 0.0138283
10 *1:14 *192:13 0.0119767
11 *1:14 *241:15 0.0071436
12 *1:14 *299:15 0.0508391
*RES
1 io_in[0] *1:7 12.825 
2 *1:7 *1:8 267.75 
3 *1:8 *1:10 4.5 
4 *1:10 *1:11 568.71 
5 *1:11 *1:13 4.5 
6 *1:13 *1:14 236.07 
7 *1:14 *419:io_in[0] 19.62 
*END

*D_NET *2 0.220273
*CONN
*P io_in[10] I
*I *419:io_in[10] I *D tiny_user_project
*CAP
1 io_in[10] 0.0047001
2 *419:io_in[10] 0.00244297
3 *2:12 0.012041
4 *2:11 0.00959803
5 *2:9 0.070413
6 *2:7 0.0751131
7 *419:io_in[10] *419:la_oenb[48] 0
8 *419:io_in[10] *38:14 0.000525815
9 *419:io_in[10] *82:14 0
10 *419:io_in[10] *182:14 0.000340883
11 *419:io_in[10] *220:12 7.9746e-05
12 *2:12 *6:14 0.045018
*RES
1 io_in[10] *2:7 37.305 
2 *2:7 *2:9 548.82 
3 *2:9 *2:11 4.5 
4 *2:11 *2:12 125.73 
5 *2:12 *419:io_in[10] 41.94 
*END

*D_NET *3 0.319514
*CONN
*P io_in[11] I
*I *419:io_in[11] I *D tiny_user_project
*CAP
1 io_in[11] 0.000363112
2 *419:io_in[11] 0.00169569
3 *3:16 0.0199589
4 *3:15 0.0182632
5 *3:13 0.0920689
6 *3:11 0.092432
7 *419:io_in[11] *419:io_in[14] 6.97444e-05
8 *419:io_in[11] *103:10 0
9 *3:16 *128:19 0.0332576
10 *3:16 *197:13 0.0500062
11 *3:16 *240:14 0.0113991
*RES
1 io_in[11] *3:11 3.195 
2 *3:11 *3:13 582.39 
3 *3:13 *3:15 4.5 
4 *3:15 *3:16 265.95 
5 *3:16 *419:io_in[11] 25.2 
*END

*D_NET *4 0.260076
*CONN
*P io_in[12] I
*I *419:io_in[12] I *D tiny_user_project
*CAP
1 io_in[12] 0.000167227
2 *419:io_in[12] 0.000896663
3 *4:16 0.0253817
4 *4:15 0.024485
5 *4:13 0.0742343
6 *4:11 0.0744015
7 *419:io_in[12] *419:la_oenb[28] 0.00130347
8 *4:16 *75:13 0.0176819
9 *4:16 *223:14 0.0390363
10 *4:16 *279:11 0.00248778
*RES
1 io_in[12] *4:11 2.115 
2 *4:11 *4:13 579.69 
3 *4:13 *4:15 4.5 
4 *4:15 *4:16 277.83 
5 *4:16 *419:io_in[12] 22.5 
*END

*D_NET *5 0.311954
*CONN
*P io_in[13] I
*I *419:io_in[13] I *D tiny_user_project
*CAP
1 io_in[13] 0.0755202
2 *419:io_in[13] 0.00293225
3 *5:8 0.040312
4 *5:7 0.0373797
5 *5:5 0.0755202
6 *419:io_in[13] *419:la_data_in[32] 0
7 *5:8 *70:13 0.0274523
8 *5:8 *159:15 0.0527013
9 *5:8 *265:5 0.000136405
*RES
1 io_in[13] *5:5 590.445 
2 *5:5 *5:7 4.5 
3 *5:7 *5:8 383.49 
4 *5:8 *419:io_in[13] 33.84 
*END

*D_NET *6 0.33801
*CONN
*P io_in[14] I
*I *419:io_in[14] I *D tiny_user_project
*CAP
1 io_in[14] 0.00127974
2 *419:io_in[14] 0.00233579
3 *6:14 0.0130402
4 *6:13 0.0107044
5 *6:11 0.0740075
6 *6:10 0.0740075
7 *6:8 0.034489
8 *6:7 0.0357688
9 *419:io_in[14] *103:9 0.00015811
10 *6:14 *120:19 0.00287918
11 *6:14 *195:13 0.00844792
12 *6:14 *247:11 0.0358041
13 *419:io_in[11] *419:io_in[14] 6.97444e-05
14 *2:12 *6:14 0.045018
*RES
1 io_in[14] *6:7 12.825 
2 *6:7 *6:8 265.05 
3 *6:8 *6:10 4.5 
4 *6:10 *6:11 576.99 
5 *6:11 *6:13 4.5 
6 *6:13 *6:14 195.75 
7 *6:14 *419:io_in[14] 30.33 
*END

*D_NET *7 0.257235
*CONN
*P io_in[15] I
*I *419:io_in[15] I *D tiny_user_project
*CAP
1 io_in[15] 0.00107486
2 *419:io_in[15] 0.00348686
3 *7:14 0.0224113
4 *7:13 0.0189244
5 *7:11 0.0439248
6 *7:10 0.0439248
7 *7:8 0.0303022
8 *7:7 0.0313771
9 *419:io_in[15] *207:16 8.89374e-05
10 *7:8 *9:10 0.000231119
11 *7:8 *46:17 0.0204287
12 *7:8 *83:17 0.0371026
13 *7:14 *51:11 0.00395756
14 *7:14 *309:11 0
15 *7:14 *337:16 0
*RES
1 io_in[15] *7:7 12.825 
2 *7:7 *7:8 306.63 
3 *7:8 *7:10 4.5 
4 *7:10 *7:11 337.41 
5 *7:11 *7:13 4.5 
6 *7:13 *7:14 151.29 
7 *7:14 *419:io_in[15] 34.38 
*END

*D_NET *8 0.209164
*CONN
*P io_in[16] I
*I *419:io_in[16] I *D tiny_user_project
*CAP
1 io_in[16] 0.000247817
2 *419:io_in[16] 0.00115384
3 *8:19 0.0314057
4 *8:18 0.0302518
5 *8:16 0.0314161
6 *8:15 0.0314161
7 *8:13 0.0348042
8 *8:11 0.035052
9 *419:io_in[16] *419:la_data_in[20] 0.000563114
10 *8:19 *16:11 0.0025853
11 *8:19 *178:19 0.010268
12 *8:19 *347:19 0
*RES
1 io_in[16] *8:11 2.655 
2 *8:11 *8:13 267.57 
3 *8:13 *8:15 4.5 
4 *8:15 *8:16 244.53 
5 *8:16 *8:18 4.5 
6 *8:18 *8:19 263.07 
7 *8:19 *419:io_in[16] 13.725 
*END

*D_NET *9 0.152732
*CONN
*P io_in[17] I
*I *419:io_in[17] I *D tiny_user_project
*CAP
1 io_in[17] 0.00133446
2 *419:io_in[17] 0.00102667
3 *9:14 0.0174079
4 *9:13 0.0163813
5 *9:11 0.0473829
6 *9:10 0.0487174
7 *419:io_in[17] *419:la_data_in[10] 0.000555382
8 *419:io_in[17] *419:la_oenb[29] 0
9 *9:11 *282:11 0.00734324
10 *9:14 *419:io_in[23] 0.000455852
11 *9:14 *419:la_data_in[10] 0.0118957
12 *7:8 *9:10 0.000231119
*RES
1 io_in[17] *9:10 19.755 
2 *9:10 *9:11 370.71 
3 *9:11 *9:13 4.5 
4 *9:13 *9:14 140.13 
5 *9:14 *419:io_in[17] 17.415 
*END

*D_NET *10 0.151243
*CONN
*P io_in[18] I
*I *419:io_in[18] I *D tiny_user_project
*CAP
1 io_in[18] 0.00301636
2 *419:io_in[18] 0.00500939
3 *10:14 0.0113387
4 *10:13 0.00632929
5 *10:11 0.0424956
6 *10:10 0.045512
7 *10:14 *11:16 0.0371731
8 *10:14 *97:11 0.000369049
*RES
1 io_in[18] *10:10 31.635 
2 *10:10 *10:11 326.61 
3 *10:11 *10:13 4.5 
4 *10:13 *10:14 95.13 
5 *10:14 *419:io_in[18] 45.36 
*END

*D_NET *11 0.28614
*CONN
*P io_in[19] I
*I *419:io_in[19] I *D tiny_user_project
*CAP
1 io_in[19] 0.000178873
2 *419:io_in[19] 0.00584952
3 *11:25 0.00765981
4 *11:19 0.0159187
5 *11:18 0.0141084
6 *11:16 0.00720343
7 *11:15 0.00720343
8 *11:13 0.0435881
9 *11:11 0.043767
10 *419:io_in[19] *257:16 0
11 *11:16 *97:11 0.0018512
12 *11:19 *116:19 0.072377
13 *11:19 *184:8 0.0286727
14 *11:19 *184:14 0.000447643
15 *11:25 *116:19 0.000141512
16 *10:14 *11:16 0.0371731
*RES
1 io_in[19] *11:11 2.115 
2 *11:11 *11:13 334.89 
3 *11:13 *11:15 4.5 
4 *11:15 *11:16 102.87 
5 *11:16 *11:18 4.5 
6 *11:18 *11:19 229.59 
7 *11:19 *11:25 25.83 
8 *11:25 *419:io_in[19] 38.655 
*END

*D_NET *12 0.484024
*CONN
*P io_in[1] I
*I *419:io_in[1] I *D tiny_user_project
*CAP
1 io_in[1] 0.000370905
2 *419:io_in[1] 0.0010295
3 *12:19 0.00518248
4 *12:18 0.00415298
5 *12:16 0.0684942
6 *12:15 0.0684942
7 *12:13 0.00981596
8 *12:11 0.0101869
9 *419:io_in[1] *419:wbs_adr_i[24] 6.31257e-05
10 *419:io_in[1] *137:19 7.85723e-05
11 *12:16 *112:45 0
12 *12:19 *38:11 0.0550191
13 *12:19 *50:11 0.180437
14 *12:19 *282:14 0.0726245
15 *12:19 *314:14 0.00479126
16 *12:19 *385:19 0.00328358
*RES
1 io_in[1] *12:11 3.195 
2 *12:11 *12:13 75.87 
3 *12:13 *12:15 4.5 
4 *12:15 *12:16 524.25 
5 *12:16 *12:18 4.5 
6 *12:18 *12:19 483.93 
7 *12:19 *419:io_in[1] 19.8 
*END

*D_NET *13 0.130275
*CONN
*P io_in[20] I
*I *419:io_in[20] I *D tiny_user_project
*CAP
1 io_in[20] 0.00145152
2 *419:io_in[20] 7.31444e-05
3 *13:11 0.0470815
4 *13:10 0.0470083
5 *13:8 0.0165999
6 *13:7 0.0180514
7 *419:io_in[20] *419:la_data_in[53] 8.91803e-06
*RES
1 io_in[20] *13:7 15.525 
2 *13:7 *13:8 128.97 
3 *13:8 *13:10 4.5 
4 *13:10 *13:11 354.87 
5 *13:11 *419:io_in[20] 18.63 
*END

*D_NET *14 0.269273
*CONN
*P io_in[21] I
*I *419:io_in[21] I *D tiny_user_project
*CAP
1 io_in[21] 0.00173254
2 *419:io_in[21] 0.000796602
3 *14:14 0.00597972
4 *14:13 0.00518312
5 *14:11 0.0762811
6 *14:10 0.0780136
7 *419:io_in[21] *419:la_data_in[36] 0
8 *419:io_in[21] *52:16 0
9 *419:io_in[21] *144:17 6.6327e-05
10 *14:10 *54:17 0.000962916
11 *14:14 *26:19 0.0112669
12 *14:14 *42:11 0.00731273
13 *14:14 *47:11 0.0191494
14 *14:14 *380:16 0.0206664
15 *14:14 *383:13 0.0311986
16 *14:14 *401:11 0.0106627
*RES
1 io_in[21] *14:10 25.335 
2 *14:10 *14:11 579.69 
3 *14:11 *14:13 4.5 
4 *14:13 *14:14 221.49 
5 *14:14 *419:io_in[21] 18.3365 
*END

*D_NET *15 0.247851
*CONN
*P io_in[22] I
*I *419:io_in[22] I *D tiny_user_project
*CAP
1 io_in[22] 0.00485079
2 *419:io_in[22] 0.00193561
3 *15:12 0.0315842
4 *15:11 0.0296486
5 *15:9 0.0405507
6 *15:7 0.0454015
7 *419:io_in[22] *419:wbs_adr_i[29] 0.00171589
8 *419:io_in[22] *60:8 0.00250979
9 *419:io_in[22] *167:16 0.00115016
10 *419:io_in[22] *235:19 0.000503061
11 *15:12 *48:13 0.0654329
12 *15:12 *219:11 0.000419125
13 *15:12 *337:16 0
14 *15:12 *362:14 0.0221483
*RES
1 io_in[22] *15:7 37.305 
2 *15:7 *15:9 311.94 
3 *15:9 *15:11 4.5 
4 *15:11 *15:12 386.55 
5 *15:12 *419:io_in[22] 34.38 
*END

*D_NET *16 0.375127
*CONN
*P io_in[23] I
*I *419:io_in[23] I *D tiny_user_project
*CAP
1 io_in[23] 0.00105188
2 *419:io_in[23] 0.00290126
3 *16:11 0.0487136
4 *16:10 0.0458124
5 *16:8 0.0337292
6 *16:7 0.0347811
7 *419:io_in[23] *419:la_data_in[10] 0.000120651
8 *16:8 io_out[18] 5.07239e-05
9 *16:8 *54:17 0.192561
10 *16:11 io_out[18] 6.97416e-05
11 *16:11 *132:11 0.0058382
12 *16:11 *178:19 0.00645602
13 *8:19 *16:11 0.0025853
14 *9:14 *419:io_in[23] 0.000455852
*RES
1 io_in[23] *16:7 12.645 
2 *16:7 *16:8 497.25 
3 *16:8 *16:10 4.5 
4 *16:10 *16:11 371.61 
5 *16:11 *419:io_in[23] 35.505 
*END

*D_NET *17 0.414448
*CONN
*P io_in[24] I
*I *419:io_in[24] I *D tiny_user_project
*CAP
1 io_in[24] 0.000201168
2 *419:io_in[24] 0.000326098
3 *17:19 0.00405551
4 *17:18 0.00372942
5 *17:16 0.0750625
6 *17:15 0.0750625
7 *17:13 0.0499781
8 *17:11 0.0501793
9 *419:io_in[24] *419:wbs_dat_i[2] 1.13744e-05
10 *17:19 *52:17 0.00670073
11 *17:19 *62:11 0.0112867
12 *17:19 *101:11 0.0552951
13 *17:19 *112:22 0.0674209
14 *17:19 *240:19 0.00161333
15 *17:19 *253:16 0.0135251
*RES
1 io_in[24] *17:11 1.935 
2 *17:11 *17:13 316.71 
3 *17:13 *17:15 4.5 
4 *17:15 *17:16 570.69 
5 *17:16 *17:18 4.5 
6 *17:18 *17:19 238.23 
7 *17:19 *419:io_in[24] 15.4565 
*END

*D_NET *18 0.288411
*CONN
*P io_in[25] I
*I *419:io_in[25] I *D tiny_user_project
*CAP
1 io_in[25] 0.000125876
2 *419:io_in[25] 0.000666212
3 *18:19 0.020347
4 *18:18 0.0196807
5 *18:16 0.0662638
6 *18:15 0.0662638
7 *18:13 0.0295919
8 *18:11 0.0297178
9 *18:19 *26:19 0.0492183
10 *18:19 *52:17 0
11 *18:19 *85:11 0.001263
12 *18:19 *95:11 0
13 *18:19 *380:16 0.00149403
14 *18:19 *383:13 0.00377816
*RES
1 io_in[25] *18:11 1.395 
2 *18:11 *18:13 187.11 
3 *18:13 *18:15 4.5 
4 *18:15 *18:16 505.35 
5 *18:16 *18:18 4.5 
6 *18:18 *18:19 225.27 
7 *18:19 *419:io_in[25] 17.6165 
*END

*D_NET *19 0.170665
*CONN
*P io_in[26] I
*I *419:io_in[26] I *D tiny_user_project
*CAP
1 io_in[26] 0.00224804
2 *419:io_in[26] 0.00032754
3 *19:11 0.0485891
4 *19:10 0.0482615
5 *19:8 0.0344806
6 *19:7 0.0367287
7 *419:io_in[26] *419:wbs_stb_i 3.00199e-05
*RES
1 io_in[26] *19:7 21.465 
2 *19:7 *19:8 264.87 
3 *19:8 *19:10 4.5 
4 *19:10 *19:11 368.01 
5 *19:11 *419:io_in[26] 11.88 
*END

*D_NET *20 0.160537
*CONN
*P io_in[27] I
*I *419:io_in[27] I *D tiny_user_project
*CAP
1 io_in[27] 0.00035683
2 *419:io_in[27] 0.00012328
3 *20:19 0.0240719
4 *20:18 0.0239486
5 *20:16 0.0294749
6 *20:15 0.0294749
7 *20:13 0.026365
8 *20:11 0.0267218
*RES
1 io_in[27] *20:11 3.015 
2 *20:11 *20:13 206.01 
3 *20:13 *20:15 4.5 
4 *20:15 *20:16 224.01 
5 *20:16 *20:18 4.5 
6 *20:18 *20:19 179.01 
7 *20:19 *419:io_in[27] 9.99 
*END

*D_NET *21 0.137958
*CONN
*P io_in[28] I
*I *419:io_in[28] I *D tiny_user_project
*CAP
1 io_in[28] 0.000249598
2 *419:io_in[28] 0.000208835
3 *21:19 0.0212642
4 *21:18 0.0210553
5 *21:16 0.0182929
6 *21:15 0.0182929
7 *21:13 0.0291724
8 *21:11 0.029422
9 *419:io_in[28] *419:wbs_dat_i[10] 0
10 *21:16 *52:20 0
*RES
1 io_in[28] *21:11 2.475 
2 *21:11 *21:13 227.61 
3 *21:13 *21:15 4.5 
4 *21:15 *21:16 137.79 
5 *21:16 *21:18 4.5 
6 *21:18 *21:19 157.41 
7 *21:19 *419:io_in[28] 10.71 
*END

*D_NET *22 0.129229
*CONN
*P io_in[29] I
*I *419:io_in[29] I *D tiny_user_project
*CAP
1 io_in[29] 0.00310808
2 *419:io_in[29] 0.000290451
3 *22:19 0.0480127
4 *22:18 0.0477223
5 *22:16 0.0134145
6 *22:15 0.0165226
7 *419:io_in[29] *419:la_oenb[28] 0.00015811
*RES
1 io_in[29] *22:15 28.845 
2 *22:15 *22:16 102.69 
3 *22:16 *22:18 4.5 
4 *22:18 *22:19 362.61 
5 *22:19 *419:io_in[29] 11.79 
*END

*D_NET *23 0.321358
*CONN
*P io_in[2] I
*I *419:io_in[2] I *D tiny_user_project
*CAP
1 io_in[2] 0.000363176
2 *419:io_in[2] 0.000518826
3 *23:11 0.0487949
4 *23:10 0.048276
5 *23:8 0.0314483
6 *23:7 0.0318115
7 *419:io_in[2] *73:16 0.000366411
8 *419:io_in[2] *225:20 0.000907444
9 *419:io_in[2] *349:14 0.00119843
10 *23:8 *32:8 0.00364046
11 *23:8 *39:10 0.153383
12 *23:8 *76:14 3.34378e-05
13 *23:11 *419:io_in[3] 0.000616132
14 *23:11 *32:11 0
*RES
1 io_in[2] *23:7 7.425 
2 *23:7 *23:8 448.11 
3 *23:8 *23:10 4.5 
4 *23:10 *23:11 371.43 
5 *23:11 *419:io_in[2] 16.875 
*END

*D_NET *24 0.237888
*CONN
*P io_in[30] I
*I *419:io_in[30] I *D tiny_user_project
*CAP
1 io_in[30] 0.000113196
2 *419:io_in[30] 0.00115772
3 *24:19 0.0270785
4 *24:18 0.0259208
5 *24:16 0.0222816
6 *24:15 0.0222816
7 *24:13 0.0247031
8 *24:11 0.0248163
9 *419:io_in[30] *79:10 0.000268691
10 *419:io_in[30] *253:13 0
11 *419:io_in[30] *390:14 0.000602375
12 *24:19 *58:11 0
13 *24:19 *292:14 0.0538718
14 *24:19 *345:14 0
15 *24:19 *353:16 0.0347925
*RES
1 io_in[30] *24:11 1.395 
2 *24:11 *24:13 189.81 
3 *24:13 *24:15 4.5 
4 *24:15 *24:16 169.11 
5 *24:16 *24:18 4.5 
6 *24:18 *24:19 329.31 
7 *24:19 *419:io_in[30] 21.8857 
*END

*D_NET *25 0.107622
*CONN
*P io_in[31] I
*I *419:io_in[31] I *D tiny_user_project
*CAP
1 io_in[31] 0.00638456
2 *419:io_in[31] 0.000144668
3 *25:15 0.0424475
4 *25:14 0.0433724
5 *25:9 0.00745417
6 *419:io_in[31] *275:23 0
7 *25:15 *275:23 0.00781899
*RES
1 io_in[31] *25:9 48.465 
2 *25:9 *25:14 17.19 
3 *25:14 *25:15 336.87 
4 *25:15 *419:io_in[31] 10.17 
*END

*D_NET *26 0.263959
*CONN
*P io_in[32] I
*I *419:io_in[32] I *D tiny_user_project
*CAP
1 io_in[32] 0.000323383
2 *419:io_in[32] 0.000721176
3 *26:19 0.00579268
4 *26:18 0.00884786
5 *26:13 0.0412581
6 *26:11 0.0378051
7 *26:19 *47:11 0.0609635
8 *26:19 *83:11 0.0358482
9 *26:19 *85:11 0.0100563
10 *26:19 *383:13 0.001857
11 *14:14 *26:19 0.0112669
12 *18:19 *26:19 0.0492183
*RES
1 io_in[32] *26:11 3.015 
2 *26:11 *26:13 287.01 
3 *26:13 *26:18 36.63 
4 *26:18 *26:19 272.25 
5 *26:19 *419:io_in[32] 17.7965 
*END

*D_NET *27 0.120441
*CONN
*P io_in[33] I
*I *419:io_in[33] I *D tiny_user_project
*CAP
1 io_in[33] 0.000242542
2 *419:io_in[33] 0.000144668
3 *27:19 0.0399762
4 *27:18 0.0398315
5 *27:16 0.00857457
6 *27:15 0.00857457
7 *27:13 0.0114273
8 *27:11 0.0116698
9 *27:13 *315:13 0
*RES
1 io_in[33] *27:11 2.475 
2 *27:11 *27:13 87.21 
3 *27:13 *27:15 4.5 
4 *27:15 *27:16 64.89 
5 *27:16 *27:18 4.5 
6 *27:18 *27:19 297.81 
7 *27:19 *419:io_in[33] 10.17 
*END

*D_NET *28 0.264484
*CONN
*P io_in[34] I
*I *419:io_in[34] I *D tiny_user_project
*CAP
1 io_in[34] 0.00194183
2 *419:io_in[34] 0.000228244
3 *28:11 0.0363072
4 *28:10 0.036079
5 *28:8 0.0380884
6 *28:7 0.0400302
7 *28:8 *313:13 0
8 *28:11 *60:17 0.104793
9 *28:11 *134:25 0.00701603
*RES
1 io_in[34] *28:7 18.765 
2 *28:7 *28:8 292.77 
3 *28:8 *28:10 4.5 
4 *28:10 *28:11 370.71 
5 *28:11 *419:io_in[34] 10.17 
*END

*D_NET *29 0.310329
*CONN
*P io_in[35] I
*I *419:io_in[35] I *D tiny_user_project
*CAP
1 io_in[35] 0.00117627
2 *419:io_in[35] 0.00119906
3 *29:11 0.0468249
4 *29:10 0.0456259
5 *29:8 0.0523939
6 *29:7 0.0535702
7 *419:io_in[35] *36:26 0.000744937
8 *29:11 *60:11 0.0168875
9 *29:11 *68:11 0
10 *29:11 *198:11 0.0235893
11 *29:11 *223:11 0.0443422
12 *29:11 *295:14 0
13 *29:11 *314:14 0.00501225
14 *29:11 *317:12 0.0189628
15 *29:11 *348:12 0
16 *29:11 *384:15 0
*RES
1 io_in[35] *29:7 13.365 
2 *29:7 *29:8 402.75 
3 *29:8 *29:10 4.5 
4 *29:10 *29:11 547.11 
5 *29:11 *419:io_in[35] 20.88 
*END

*D_NET *30 0.430681
*CONN
*P io_in[36] I
*I *419:io_in[36] I *D tiny_user_project
*CAP
1 io_in[36] 0.00177706
2 *419:io_in[36] 0.00237082
3 *30:12 0.0110774
4 *30:11 0.00870656
5 *30:9 0.0773128
6 *30:7 0.0790899
7 *419:io_in[36] *419:wbs_dat_i[0] 0.000137641
8 *30:9 *304:10 0
9 *30:12 *89:8 0.0159039
10 *30:12 *117:11 0.135865
11 *30:12 *244:11 0.0409641
12 *30:12 *370:19 0.0574754
*RES
1 io_in[36] *30:7 13.185 
2 *30:7 *30:9 581.04 
3 *30:9 *30:11 4.5 
4 *30:11 *30:12 440.19 
5 *30:12 *419:io_in[36] 21.195 
*END

*D_NET *31 0.371551
*CONN
*P io_in[37] I
*I *419:io_in[37] I *D tiny_user_project
*CAP
1 io_in[37] 0.000323383
2 *419:io_in[37] 0.00260654
3 *31:16 0.0468986
4 *31:15 0.0442921
5 *31:13 0.0793068
6 *31:11 0.0796302
7 *419:io_in[37] *419:la_data_in[23] 0.000559785
8 *419:io_in[37] *308:7 0
9 *31:13 *148:12 0
10 *31:16 *86:8 0.0654429
11 *31:16 *315:10 0.0496195
12 *31:16 *377:19 0.00287102
*RES